# Experiment1
# A two-minute dumbbell experiment with competing flows.
# Good for testing fairness and general protocol performance in a standard setting.


[General]
ned-path = HOME/raynet/_topologies:HOME/inet4.5/examples:HOME/inet4.5/showcases:HOME/inet4.5/src:HOME/inet4.5/tests/validation:HOME/inet4.5/tests/networks:HOME/inet4.5/tutorials:HOME/raynet/simlibs/tcpPaced/src:HOME/raynet/simlibs/cubic/src:HOME/raynet/simlibs/RLComponents/src:HOME/raynet/simlibs/Orca/src
# General
sim-time-limit = 120s


# Outputs/verbosity
check-signals = false
record-eventlog= false
cmdenv-express-mode = true
cmdenv-redirect-output = false
cmdenv-log-prefix = %t | %m |
cmdenv-silent = true
cmdenv-event-banners = false
**.cmdenv-log-level = off
**.queue.recordStats = false

# Metrics (for plotting!)
**.intervalDuration:vector(removeRepeats).vector-recording = true # You need this, plus it needs to be registered as a removeRepeats signal in the NED
**.srtt:vector(removeRepeats).vector-recording = true 
**.throughput:vector(removeRepeats).vector-recording = true 
**.pacerate:vector(removeRepeats).vector-recording = true 
**.action:vector(removeRepeats).vector-recording = true 
**.cwnd:vector(removeRepeats).vector-recording = true 
**.**.tcp.conn-*.**.vector-recording = true # Need this too, for some reason
**.scalar-recording=false
**.vector-recording=false
**.bin-recording=false

# Network parameters
network = topologies.Dumbbell
**.numberOfFlows = 3                                            # Number of client/server pairs. Includes the "main" protocol being tested, client[0]
**.ppp[*].queue.dataCapacity = ORCA_BOTTLENECK_BUFFER_SIZE      # Bottleneck buffer size
**.bottleneckDatarate = ORCA_BOTTLENECK_BW                      # Bottleneck bandwidth
**.bottleneckDelay = ORCA_BASE_RTT                              # Base RTT


# Client settings
**.client[*].numApps = 1
**.client[*].app[*].typename  = "TcpSessionApp"
**.client[*].app[*].active = true
**.client[*].app[*].connectAddress = "server["+string(parentIndex())+"]"
**.client[*].app[*].tOpen  = 0.0s
**.client[*].app[*].tSend = 0.0s
**.client[*].app[*].tClose = 0s
**.client[*].app[*].sendBytes = 2GB

# Router/queue settings
**.router1.ppp[*].queue.typename = "DropTailQueue"
**.router2.ppp[*].queue.typename = "DropTailQueue"

# Misc. TCP Settings
**.tcp.mss= 1024
**.tcp.advertisedWindow = 1073741823
**.tcp.limitedTransmitEnabled = false # Need to add the limited transmit check for SACK based fadt recoverty.
**.tcp.windowScalingSupport = true
**.tcp.timestampSupport = true
**.tcp.nagleEnabled = true
**.tcp.sackSupport=true
**.tcp.delayedAcksEnabled = false
**.tcp.increasedIWEnabled = false
**.tcp.dupthresh = 3
**.tcp.max_burst = 100000




[Config CleanSlate]
extends = General
# "Main" flow:
**.client[0].tcp.typename = "CleanSlateTcp"
**.client[0].tcp.tcpAlgorithmClass = "CleanSlate"

# Other flows (maybe universal)
**.client[*].tcp.typename = "TcpPaced"
**.client[*].tcp.tcpAlgorithmClass = "TcpCubic"
**.server[*].tcp.typename = "Tcp"
**.server[*].tcp.tcpAlgorithmClass = "TcpNoCongestionControl"
**.server[*].numApps = 1
**.server[*].app[*].typename = "TcpSinkApp"

# Aiden variables?
**.additiveIncreasePercent = 0.05
**.eta = 0.95
**.alpha = 0.01
**.fixedAvgRTTVal = 0
**.tcp.initialSsthresh = 102400

# RLTcp variables?
**.maxWindow = 10                       # maximum window size 
**.stateSize = 4                        # dimension of the state space
**.maxObsCount = 15                     # max number of observations for a single state
**.ewmaWeight = 1.5                     # weight for the moving average of state variables (as in Tcp-Ex Machina)

# Orca
**.rewardDelayForgiveness = 1.25          # How much delay increases should be forgiven/ignored in reward calculation
**.rewardLossMultiplier = 5             # How strongly loss should affect reward calculation
**.printDebugMessages = true           # set to true to print debug messages for the CC algorithm
**.takeActions = true                  # If false, will stop Orca from performing actions
**.maxRLSteps = MAX_RL_STEPS            # Steps before a given agent's simulation is reset
**.monitorIntervalDuration = 1
debug-on-errors = true


[Config Orca]
extends = General

# A single agent uses Orca
**.client[0].tcp.typename = "OrcaTcp"
**.client[0].tcp.tcpAlgorithmClass = "Orca"

# Everyone else defaults to standard TCP
**.client[*].tcp.typename = "TcpPaced"
**.client[*].tcp.tcpAlgorithmClass = "TcpCubic"

# Servers
**.server[*].numApps = 1
**.server[*].app[*].typename = "TcpSinkApp"
**.server[*].tcp.typename = "TcpPaced"
**.server[*].tcp.tcpAlgorithmClass = "TcpCubic"

# Misc. TCP Settings
**.tcp.mss= 1024
**.tcp.advertisedWindow = 1073741823
**.tcp.limitedTransmitEnabled = false # Need to add the limited transmit check for SACK based fadt recoverty.
**.tcp.windowScalingSupport = true
**.tcp.timestampSupport = true
**.tcp.nagleEnabled = true
**.tcp.sackSupport=true
**.tcp.delayedAcksEnabled = false
**.tcp.increasedIWEnabled = false
**.tcp.dupthresh = 3
**.tcp.max_burst = 100000

# Aiden variables?
**.additiveIncreasePercent = 0.05
**.eta = 0.95
**.alpha = 0.01
**.fixedAvgRTTVal = 0
**.tcp.initialSsthresh = 102400

# RLTcp variables?
**.maxWindow = 10                       # maximum window size 
**.stateSize = 4                        # dimension of the state space
**.maxObsCount = 15                     # max number of observations for a single state
**.ewmaWeight = 1.5                     # weight for the moving average of state variables (as in Tcp-Ex Machina)

# Orca
**.rewardDelayForgiveness = 1.25           # How much delay increases should be forgiven/ignored in reward calculation
**.rewardLossMultiplier = 5             # How strongly loss should affect reward calculation
**.printDebugMessages = false           # set to true to print debug messages for the CC algorithm
**.takeActions = true                  # If false, will stop Orca from performing actions
**.maxRLSteps = MAX_RL_STEPS            # Steps before a given agent's simulation is reset
**.monitorIntervalDuration = 1
debug-on-errors = true